•4-025 



B31+ 



In 



K 





GJottteU Hmocrattg ffiihtarg 

Stljara, Jfew $ork 



FROM THE 



BENNO LOEWY LIBRARY 

COLLECTED BY 

BENNO LOEWY 

1854-1919 
BEQUEATHED TO CORNELL UNIVERSITY 



^fc£ 



Date Due 








































• 





























































































































































PA 4025.A C 5B91 "i"^ Ub ™ nr 

v.2 

™* Odyssey of Homer / 




3 1924 005 354 570 




The original of this book is in 
the Cornell University Library. 

There are no known copyright restrictions in 
the United States on the use of the text. 



http://www.archive.org/details/cu31924005354570 





Date Due 












Jtnt 


1 7Qjfn 








,if 49 Jf 


* 












































































































i 
i 

































































THE 



ODYSSEY OF HOMER 



TRANSLATED INTO ENGLISH BLANK FERSE 



WILLIAM CULLEN BRYANT 



VOLUME II. 




BOSTON 

lOD i 

.DS, AND F 

1872 



JAMES R. OSGOOD AND COMPANY 

Late Ticknor & Fields, and Fields, Osgood, & Co. 



£s? / &- 




/\1SJ% 



6Lp 



Entered according to Act of Congress, in the year 1872, 

BY JAMES R. OSGOOD & CO., 

in the Office of the Librarian of Congress, at Washington. 



University Press : Welch, Bigelow, & Co , 
Cambridge. 



CONTENTS 

OF VOL. II. 



BOOK XIII. 

ARRIVAL OF ULYSSES AT ITHACA 

Page 

Departure of Ulysses from the Court of Alcinoiis. — Arrival of the Ship at 
Ithaca. — Ulysses carried on Shore by the Phaeacians while asleep, and 
left. — His Treasures landed also. — The Ship, while returning, trans- 
formed by Neptune into a Rock. — Dialogue between Pallas and Ulys- 
ses concerning the Destruction of the Suitors. — Concealment of the 
Treasures in a Cave. — Transformation of Ulysses into an Old Man . i 



BOOK XIV. 

MEETING OF ULYSSES AND EUMjEUS. 

Hospitable Reception by Eumaeus of Ulysses in the Disguise of a Beggar. — 
His Feigned Account of himself. — His Promise that Ulysses shall re- 
turn. — Supper in the Lodge of Eumasus. — Stratagem of Ulysses to 
procure a Cloak for the Night ........ 25 

BOOK XV. 

RETURN OF TELEMACHUS. 

Appearance of Pallas in a Dream to Telemachus, warning him to return to 
Ithaca. — His Departure from Lacedaemon, and Arrival at Pylos. — 
Theoclymenus, an Augur, taken on Board by him at Pylos. — The Story 
of Eumxus related by him to Ulysses. — Arrival of Telemachus at the 
Coast of Ithaca. — The Ship sent forward to the City, while Telema- 
chus, having committed Theoclymenus to the Care of his Friend 
Pirasus, goes to the Lodge of Eumajus 53 



IV 



Contents. 



BOOK XVI. 

ULYSSES DISCOVERING HIMSELF TO TELEMACHUS. 

Reception of Telemachus by Eumsus, who is sent to inform Penelope of 
her Son's Arrival. — Interview of Ulysses and Telemachus, in which, at 
the Command of Pallas, Ulysses discovers himself. — Return of the 
Disappointed Suitors from lying in Wait for Telemachus . .82 

BOOK XVII. 

RETURN OF ULYSSES TO HIS PALACE. 

Meeting of Telemachus and Penelope, Ulysses conducted by Eumsus to 
the Palace, where he is known by the Dog Argus, who dies on seeing 
him. — Entrance of Ulysses among the Suitors. — Assault made by An- 
tinoiis upon Ulysses. — Ulysses sent for by Penelope . . . .107 

BOOK XVIII. 

COMBAT OF ULYSSES AND IRUS. 

Ulysses insulted by the Beggar Irus. — Amusement of the Suitors, who en- 
courage the Quarrel. — Victory of Ulysses in the Combat with Irus. 
— Manoeuvre of Penelope to obtain Presents from the Suitors, and its 
Success. — Ulysses insulted by Eurymachus. — His Reply. — The Cup- 
bearer struck down by a Footstool flung at Ulysses by Eurymachus . .139 

BOOK XIX. 

ULYSSES RECOGNIZED BY EURYCLEIA. 

Removal of the Weapons from the Hall by Ulysses and his Son. — Inter- 
view of Penelope and Ulysses, who tells her that he has seen her Hus- 
band in Crete, describes his Person and Dress, and affirms that within 
a Month he will be in Ithaca. — The Bath administered to Ulysses by 
Eurycleia, who recognizes him by a Scar on his Leg. — Narrative of the 
Manner in which the Scar was caused . . . . . .162 

BOOK XX. 

THE LAST BANQUET OF THE SUITORS. 

Disorderly Conduct of the Serving- Women. — Prayer of Ulysses for a Favor- 
able Omen. — Its Fulfilment. — Preparations for a Feast of the Suitors 
in the Palace, — The Feast. — Ulysses insulted by Ctesippus, who is 
reproved by Telemachus. — Strange Prodigies observed by Theocly- 
menus, who leaves the Hall ...... 



Contents. v 



BOOK XXI. 

THE BENDING OF THE BOW OF ULYSSES. 
Proposal of Penelope to the Suitors to contend for her Hand with the Bow 
and Arrows of Ulysses. — Their Ineffectual Attempts to bend the Bow. 
— Management of Ulysses to obtain the Bow, which he bends with 
Ease, and sends an Arrow through the twelve Rings set up in a Row 
"for the Purpose . . . . . . . . . .214 

BOOK XXII. 

DEATH OF THE SUITORS. 

Antinoiis slain by an Arrow from the Bow of Ulysses, who now declares 
himself, and begins the Slaughter. — Arms brought to him and to Eu- 
masus and Philcetius by Telemachus. — Arms brought to the Suitors by 
Melanthius the Goatherd. — Appearance of Pallas in the Shape of Men- 
tor. — Death of all the Suitors. — Medon and Phemius spared. — The 
Unfaithful Serving- Women hanged ....... 237 

BOOK XXIII. 

ULYSSES AND PENELOPE AFTER THE SLAUGHTER. 
Descent of Penelope to the Hall. — Her Doubts of the Identity of Ulysses 
removed by Evident Tokens given by Ulysses. — Her Transport at their 
Removal. — His Narrative of his Adventures. — Departure of Ulysses 
with his Son, the Herdsman, and the Swineherd, to the Country. . 263 

BOOK XXIV. 

CONCLUSION. 

The Souls of the Suitors conducted to Hades by Mercury. — Agamemnon 
and Achilles in Hades. — Their Meeting with the Souls of the Suitors, 
and Narrative of Amphimedon. — Meeting and Mutual Recognition of 
Ulysses and his Father in the Orchard at Ithaca. — Insurrection of the 
Ithacans, with Eupeithes, the Father of Antinoiis, at their Head. — The 
Revolt quelled, Eupeithes slain by Laertes, and a lasting Peace made 
between Ulysses and his Subjects ....... 283 



THE ODYSSEY. 

BOOK XIII. 

T T E spake, and all within those shadowy halls 

Were silent ; all were held in mute delight. 
Alcinoiis then took up the word and said : — 
" Since thou hast come, Ulysses, as a guest, 
To this high pile and to these brazen rooms, s 

So long a sufferer, thou must not depart 
Upon thy homeward way a wanderer still. 
And this let me enjoin on each of you 
Who in this palace drink at our repasts 
The choice red wine, and listen to the bard : 10 

Already in a polished chest are laid 
Changes of raiment, works of art in gold, 
And other gifts, which the Phaeacian chiefs 
Have destined for our guest ; now let us each 
Bestow an ample tripod and a vase, >5 



2 The Odyssey. 

And we in an assembly of the realm 

Will see the cost repaid, since otherwise 

Great would the burden be that each must bear." 

So spake Alcinoiis ; they approved, and sought 
Their homes to sleep, but when the child of Dawn, zo 
The rosy-fingered Morn, appeared, they came, 
All bringing to the ship their gifts of brass 
In honor of the guest. The mighty prince 
Alcinoiis, going through the ship, bestowed 
The whole beneath the benches, that no one 25 

Of those who leaned to pull the oar might thence 
Meet harm or hindrance. Then they all went back 
To the king's palace, and prepared a feast. 

The mighty prince Alcinoiis offered up 
For them an ox to cloud-compelling Jove, 3° 

The son of Saturn, ruler over all. 
They burned the thighs, and held high festival, 
And all was mirth. Divine -Demodocus 
The bard, whom all men reverenced, sang to them. 
Meantime Ulysses often turned to look 35 

At the bright Sun, and longed to see him set, 
So eager was the hero to set sail 
Upon his homeward way. As when a swain 
Awaits his evening meal, for whom all day 



Book xiii. 3 

Two dark-brown steers have dragged the solid plough 40 

Through fallow grounds, and welcome is the hour 

Of sunset, calling him to his repast, 

And wearily he walks with failing knees, 

So welcome to Ulysses did the light 

Of day go down. Then did he hold discourse 45 

With the Phasacians, lovers of the sea, 

And chiefly with Alcinoiis, speaking thus: — 

" O monarch most illustrious of thy race, 
Alcinoiis, now when ye have duly poured 
Wine to the gods, be pleased to send me hence 5° 

In peace, and fare ye well ! All that my heart 
Could wish have ye provided bounteously, — 
An escort and rich gifts ; and may the gods 
Bestow their blessing with them ! May I meet 
My blameless wife again, and find my friends 55 

Prosperous ! And ye whom I shall leave, behind, 
Long may ye make the wives of your young years 
And children happy ! May the gods vouchsafe 
To crown with every virtue you and them, 
And may no evil light upon your isle ! " 60 

He spake; the assembly all approved his words, 
And bade send forth the stranger on his way, 
Who spake so nobly. Then the mighty prince 



4 The Odyssey. 

Alcinoiis turned, and to the herald said : — 

" Now mix the wine, Pontonoiis, in a jar, <*5 

And bear a part to all beneath our roof, 
That we with prayers to Father Jupiter 
May send the stranger to his native land." 

He spake ; Pontonoiis mingled for the guests 
The generous wine, and went with it to each, 7° 

Who poured it on the ground, from where they sat, 
To all the dwellers of the ample heaven ; 
And then the great Ulysses, rising up, 
Placed the round goblet in Arete's hands, 
And thus bespake the queen with winged words : — 75 

" Farewell, O queen, through the long years, till age 
And death, which are the lot of all, shall come. 
Now I depart, but mayst thou here, among 
Thy people, and the children of thy love, 
And King Alcinoiis, lead a happy life ! " 80 

So spake the high-born chieftain, and withdrew, 
And crossed the threshold. King Alcinoiis sent 
A herald with him to direct his way 
To the fleet ship and border of the deep. 
Arete also sent her servant-maids, — 85 

One bearing a fresh cloak and tunic, one 
A coffer nobly wrought, and yet a third 



Book xiii. 5 

Bread and red wine ; and when they reached the ship 

Beside the sea, the diligent crew received 

Their burdens, and bestowed within the hold 90 

The food and drink, but spread upon the deck 

And at the stern a mat and linen sheet, 

That there Ulysses undisturbed might sleep. 

He went on board and silently lay down, 

While all the rowers in due order took 95 

Their seats upon the benches. Loosing first 

The hawser from the perforated rock, 

They bent them to their task, and flung the brine 

Up from the oar, while on the chieftain's lids 

Lighted a sweet and deep and quiet sleep, 100 

Most like to death. As, smitten by the lash, 

Four harnessed stallions spring on high and dart 

Across the plain together ; so the prow 

Rose leaping forward, while behind it rolled 

A huge dark billow of the roaring sea. 105 

Safely and steadily the galley ran, 

Nor could a falcon, swiftest of the birds, 

Have kept beside it, with such speed it flew, 

Bearing a hero who was like the gods 

In wisdom, and whose sufferings in the wars "o 

And voyages among the furious waves 



6 The Odyssey. 

Were great and many, though he slumbered now 
In peace, forgetful of misfortunes past. 

Now when that brightest star, the harbinger 
Of Morning, daughter of the Dawn, arose, "5 

The bark had passed the sea, and reached the isle. 

A port there is in Ithaca, the haunt 
Of Phorcys, Ancient of the Sea. Steep shores 
Stretch inward toward each other, and roll back 
The mighty surges which the hoarse winds hurl i»o 

Against them from the ocean, while within 
Ships ride without their hawsers when they once 
Have passed the haven's mouth. An olive-tree 
With spreading branches at the farther end 
Of that fair haven stands, and overbrows 1*5 

A pleasant shady grotto of the nymphs 
Called Naiads. Cups and jars of stone are ranged 
Within, and bees lay up their honey there. 
There from their spindles wrought of stone the nymphs 
Weave their sea-purple robes, which all behold 130 

With wonder ; there are ever-flowing springs. 
Two are the entrances : one toward the north 
By which men enter ; but a holier one 
Looks toward the south, nor ever mortal foot 
May enter there. By that way pass the gods. i 35 



Book xiii. 7 

They touched the land, for well they knew the spot. 
The galley, urged so strongly by the arms 
Of those who plied the oar, ran up the beach 
Quite half her length. And then the crew came forth 
From the good ship, and first they lifted out 14° 

Ulysses with the linen and rich folds 
Of tapestry, and laid him on the sands 
In a deep slumber. Then they also took 
The presents from the hold, which, as he left 
Their isle, the princes of Phaeacia gave 145 

By counsel of wise Pallas. These they piled 
Close to the olive-tree, without the way, 
That none, in passing, ere Ulysses woke, 
Might do their owner wrong. Then homeward sailed 
The crew ; but Neptune, who could not forget 15° 

The threats which he had uttered long before 
Against the godlike chief Ulysses, thus 
Sought to explore the will of Jupiter : — 

" O Father Jove ! I shall no more be held 
In honor with the gods, since mortal men, 155 

The people of Phaeacia, though their race 
Is of my lineage, do not honor me. 
I meant Ulysses should not reach his home 
Save with much suffering, though I never thought 



8 The Odyssey. 

To hinder his return, for thou hadst given iso 

Thy promise and thy nod that it should be. 

Yet these Phasacians, in a gallant bark, 

Have borne him o'er the deep, and, while he slept, 

Have laid him down in Ithaca, and given 

Large gifts, abundant store of brass and gold, 165 

And woven work, more than he could have brought 

From captured Ilium, if he had returned 

Safely, with all his portion of the spoil." 

Then cloud-compelling Jupiter replied : 
" Earth-shaker, ruler of a mighty realm ! 17° 

What hast thou said ? The gods deny thee not 
Due honor ; perilous it were for them 
To show contempt for one who stands in age 
And might above them all. But if among 
The sons of men be one who puts such trust 17s 

In his own strength as not to honor thee, 
Do as seems good to thee, and as thou wilt." 

Promptly the god who shakes the shores replied : 
"What thou dost bid me I would do at once, 
But that I fear and would avoid thy wrath. 180 

I would destroy that fair Phceacian bark 
In its return across the misty sea 
From bearing home Ulysses, that no more 



Book xiii. 9 

May the Phaeacians lend an escort thus 

To wandering men, and I would also cause 185 

A lofty mount to rise and hide their town." 

Then spake again the Cloud-compeller Jove : 
" Thus were it best, my brother : when the crowd 
Of citizens already see the ship 

Approaching, then transform it to a rock 190 

In semblance of a galley, that they all 
May gaze in wonder ; thus wilt thou have caused 
A lofty mount to stand before their town." 

This when the shaker of the shores had heard, 
He flew to Scheria, the Phasacian isle, 19s 

And stood, until that galley, having crossed 
The sea, came swiftly scudding. He drew near 
And smote it with his open palm, and made 
The ship a rock, fast rooted in the bed 
Of the deep sea, and then he went his way. aoo 

Then winged words were spoken in that throng 
Of the Phaeacians, wielders of long oars, 
And far renowned in feats of seamanship. 
And, looking on each other, thus they said : — 

" Ha ! what has stayed our good ship on the sea ? 205 
This moment we beheld her hastening home." 

'T was thus they talked, unweeting of the cause. 



IO 



The Odyssey. 



But then Alcinoiis to the assembly said : — 
"Yes! now I call to mind the ancient words 

Of prophecy, — my father's, — who was wont «o 

To say that Neptune sorely is displeased 

That we should give to every man who comes 

Safe escort to his home. In coming times, — 

Such was my father's prophecy, — the god 

Would yet destroy a well-appointed bark "5 

Of the Phasacians on the misty deep 

Returning from an escort, and would cause 

A lofty mount to stand before our town. 

So prophesied the aged man ; his words 

Are here fulfilled. Now do as I appoint, "° 

And let us all obey. Henceforth refrain 

From bearing to their homes the strangers thrown 

Upon our coast ; and let us sacrifice 

To Neptune twelve choice bullocks of the herd, 

That he may pity us, nor hide our town "5 

With a huge mountain from the sight of men." 

He spake, and they were awed and straightway brought 

The bullocks for the sacrifice. So prayed 

To sovereign Neptune the Phasacian chiefs 

And princes, standing round the altar-fires. 23° 

Now woke the great Ulysses from his sleep 



Book xiii. ii 

In his own land, and yet he knew it not. 

Long had he been away, and Pallas now, 

The goddess-child of Jove, had cast a mist 

Around him, that he might not yet be known 23s 

To others, and that she might tell him first 

What he should learn ; nor even might his wife, 

Nor friends, nor people, know of his return, 

Ere he avenged upon the suitor crew 

His wrongs, and therefore all things wore to him 24° 

Another look, — the footways stretching far, 

The bights where ships were moored, the towering rocks, 

And spreading trees. He rose and stood upright, 

And gazed upon his native coast and wept, 

And smote his thigh, and said in bitter grief: — 245 

" Ah me ! what region am I in, among 
What people ? lawless, cruel, and unjust ? 
Or are they hospitable men, who fear 
The gods ? And where shall I bestow these goods, 
And whither go myself? Would that they all *s° 

Were still with the Phasacians, and that I 
Had found some other great and mighty king 
Kindly to welcome me, and send me back 
To my own land. I know not where to place 
These treasures, and I must not leave them here, *55 



12 The Odyssey. 

Lest others come and seize them as a spoil. 

Nay, these Phasacian chiefs and counsellors 

Were not, in all things, either wise or just. 

They gave their word to land me on the coast 

Of pleasant Ithaca, and have not kept 26a 

Their promise. O, may Jove avenge this wrong ! 

He who protects the suppliant, who beholds 

All men with equal eye, and punishes 

The guilty. Now will I review my stores 

And number them again, that I may see 265 

If those who left me here have taken aught." 

Thus having said, he numbered all his gifts, — 
Beautiful tripods, caldrons, works of gold, " 
And gorgeous woven raiment ; none of these 
Were wanting. Then he pined to see again 370 

His native isle, and slowly paced the beach 
Of the loud sea, lamenting bitterly. 
There Pallas came to meet him in the shape 
Of a young shepherd, delicately formed, 
As are the sons of kings. A mantle lay 275 

Upon her shoulder in rich folds ; her feet 
Shone in their sandals : in her hand she bore 
A javelin. As Ulysses saw, his heart 
Was glad within him, and he hastened on, 



Book xiii. 13 

And thus accosted her with winged words : — *8o 

" Fair youth, who art the first whom I have met 
Upon this shore, I bid thee hail, and hope 
Thou meetest me with no unkind intent. 
Protect what thou beholdest here and me ; 
I make my suit to thee as to a god, 185 

And come to thy dear knees. And tell, I pray, 
That I may know the truth, what land is this ? 
What people ? who the dwellers ? may it be 
A pleasant isle, or is it but the shore 
Of fruitful mainland shelving to the sea ? " 29° 

And then the goddess, blue-eyed Pallas, said : — 
" Of simple mind art thou, unless perchance 
Thou comest from afar, if thou dost ask 
What country this may be. It is not quite 
A nameless region ; many know it well 29s 

Of those who dwell beneath the rising sun, 
And those, behind, in Evening's dusky realm. 
Rugged it is, and suited ill to steeds, 
Yet barren it is not, though level grounds 
Are none within its borders. It is rich 3°° 

In corn and wine, for seasonable rains 
And dews refresh its soil. Large flocks of goats 
And herds of beeves are pastured here ; all kinds 



14 The Odyssey. 

Of trees are in its forests, and its springs 

Are never dry. The fame of Ithaca,. 3°5 

Stranger, has travelled to the Trojan coast, 

Though that, I hear, lies far away from Greece." 

She spake ; Ulysses, the great sufferer, 
Rejoiced to be in his own land, whose name 
Pallas, the child of asgis-bearing Jove, 3™ 

Had just now uttered. Then with winged words 
He spake, but not the truth ; his artful speech 
Put that aside, for ever in his breast 
The power of shrewd invention was awake : — 

" In the broad fields of Crete, that lie far off 315 

Beyond the sea, I heard of Ithaca, 
To which I now am come with these my goods. 
I left as many for my sons and fled, 
For I had slain Orsilochus, the fleet 

Of foot, the dear son of Idomeneus, 320 

Who overcame by swiftness in the race 
The foremost runners in the realm of Crete. 
He sought to rob me wholly of my share 
Of Trojan spoil, for which I had endured 
Hardships in war with heroes, and at sea 325 

Among the angry waves. The cause was this : 
I would not in the siege of Troy submit 



Book xiii. 15 

To serve his father, but, apart from him, 

I led a troop, companions of my own. 

The youth returning from the fields I met, 330 

And smote him with the spear, — for near the way 

I lay in ambush with a single friend. 

A night exceeding dark was in the sky ; 

No human eye beheld, nor did he know 

Who took his life. When I had slain him thus 335 

With the sharp spear, I hastened to a ship 

Of the Phoenicians, and besought their aid, 

And gave them large reward, and bade them steer 

To Pylos, bearing me, and leave me there, 

Or where the Epeians hold the hallowed coast 34° 

Of Elis. But the force of adverse winds 

Drove them unwilling thence ; they meant no fraud. 

We wandered hither, just at night we came ; 

And rowing hard, the seamen brought their ship 

Within th£ port. ' No word was said of food, 34s 

Though great our need. All disembarked in haste 

And lay upon the shore. Deep was the sleep 

That stole upon my weary limbs. The men 

Took from the hold my goods, and, bearing them 

To where I slumbered on the sand, set sail 35° 

For populous Sidonia, leaving me 



1 6 The Odyssey. 

Here quite alone with sorrow in my heart." 

He spake ; the blue-eyed goddess, Pallas, smiled, 
And touched the chief caressingly. She seemed 
A beautiful and stately woman now, 355 

Such as are skilled in works of rare device, 
And thus she said to him in winged words : — 

" Full shrewd were he, a master of deceit, 
Who should surpass thee in the ways of craft, 
Even though he were a god, — • thou unabashed 36° 

And prompt with shifts, and measureless in wiles ! 
Thou canst not even in thine own land refrain 
From artful figments and misleading words, 
As thou hast practised from thy birth. But now 
Speak we of other matters, for we both 365 

Are skilled in stratagem. Thou art the first 
Of living men in counsel and in speech, 
And I am famed for foresight and for craft 
Among the immortals. Dost thou not yet know 
Pallas Athene, child of Jove, whose aid 37° 

Is present to defend thee in all time 
Of peril, and but lately gained for thee 
The favor of the whole Phasacian race. 
And hither am I come to frame for thee 
Wise counsels, and to hide away the stores 375 



Book xiii. 17 

Given by the opulent Phasacian chiefs 

At thy departure. I shall also tell 

What thou must yet endure beneath the roof 

Of thine own palace, by the will of fate. 

Yet bear it bravely, since thou must, nor speak 38° 

To any man or woman of thyself 

And of thy wandering hither, but submit 

To many things that grieve thee, silently, 

And bear indignities from violent men." 

Ulysses, the sagacious, thus rejoined : 3*5 

" O goddess, it is hard for mortal man 
To know thee when he meets thee, though his sight 
Be of the sharpest, for thou puttest on 
At pleasure any form. Yet this I know, 
That thou wert kind to me when we, the sons 39° 

Of Greece, were warring in the realm of Troy. 
But when we had o'erthrown the lofty town 
Of Priam, and embarked, and when some god 
Had scattered the Achaians, after that, 
Daughter of Jove, I never saw thee more, — 39s 

Never perceived thee entering my bark 
And guarding me from danger, — but I roamed 
Ever from place to place, my heart weighed down 
By sorrow, till the gods delivered me, 



1 8 The Odyssey. 

And till thy counsels in the opulent realm 400 

Of the Phsacians brought my courage back, 

And thou thyself didst guide me to the town. 

And now in thy great father's name I pray, — 

For yet I cannot think, that I am come 

To pleasant Ithaca, but have been thrown 405 

Upon some other coast, and fear that thou 

Art jesting with me, and hast spoken thus 

But to deceive me, — tell me, is it true 

That I am in my own beloved land ? " 

And then the goddess, blue-eyed Pallas, said : 410 

" Such ever are thy thoughts, and therefore I 
Must not forsake thee in thy need. I know 
How prompt thy speech, how quick thy thought, how 

shrewd 
Thy judgment. If another man had come 
From such long wanderings, he had flown at once 415 

Delighted to his children and his wife 
In his own home. But thou desirest not 
To ask or hear of them till thou hast put 
Thy consort to the trial of her truth, — 
Her who now sits within thy halls and waits 420 

In vain for thee, and in perpetual grief 
And weeping wears her nights and days away. 



Book xni. 19 

I never doubted — well, in truth, I knew 

That thou, with all thy comrades lost, wouldst reach 

Thy country, but I dreaded to withstand 4*5 

My father's brother Neptune, who was wroth, 

And fiercely wroth, for that thou hadst deprived 

His well-beloved son of sight. But now 

Attend, and I will show thee Ithaca 

By certain tokens ; mark them and believe. 430 

The port of Phorcys, Ancient of the Deep, 

Is here ; and there the spreading olive-tree, 

Just at the haven's head ; and, close beside, 

The cool dark grotto, sacred to the nymphs 

Called Naiads, — a wide-vaulted cave where once 43s 

Thou earnest oft with chosen hecatombs, 

An offering to the nymphs, — and here thou seest 

The mountain Neritus with all his woods." 

So spake the goddess, and dispersed the mist, 
And all the scene appeared. Ulysses saw 44° 

Well pleased, rejoicing in his own dear land, 
And, stooping, kissed the bountiful earth, and raised 
His hands, and thus addressed the nymphs in prayer : — 

" Nymphs, Naiads, born to Jove, I did not hope 
To be with you again. With cheerful prayers 44s 

I now salute you. We shall bring you soon 



20 The Odyssey. 

Our offerings, as of yore, if graciously 

Jove's daughter, huntress-queen, shall grant me yet 

To live, and bless my well-beloved son." 

And then the goddess, blue-eyed Pallas, said : 45° 

" Be of good cheer, and let no anxious thought 
Disturb thy mind. Let us bestir ourselves 
To hide away the treasures thou hast brought 
Within this hallowed grot in some recess 
Where they may lie in safety ; afterward 455 

Will we take counsel what should next be done." 

The goddess said these words, and took her way 
Into the shadowy cavern, spying out 
Its hiding-places; while Ulysses brought 
The treasures thither in his arms, — the gold, 460 

The enduring brass, the raiment nobly wrought, — 
Which the Phasacians gave him. These they laid 
Together in due order ; Pallas then, 
The daughter of the iEgis-bearer Jove, 
Closed up the opening with a massive rock. 465 

Then, sitting by the sacred olive-tree, 
They plotted to destroy the haughty crew 
Of suitors, and the blue-eyed Pallas said : — 

" O nobly born, and versed in many wiles, 
Son of Laertes ! now the hour is come 470 



Book XIII. 21 

To think how thou shalt lay avenging hands 

Upon the shameless crew who, in thy house, 

For three years past have made themselves its lords, 

And wooed thy noble wife and brought her gifts, 

While, pining still for thy return, she gave 475 

Hopes to each suitor, and by messages 

Made promises to all, though cherishing 

A different purpose in her secret heart." 

Ulysses, the sagacious, answered her : 
" Ah me, I should have perished utterly, 480 

By such an evil fate as overtook 
Atrides Agamemnon, in the halls 
Of my own palace, but for thee, whose words, 
O goddess, have revealed what I should know. 
Now counsel me how I may be avenged. 485 

Be ever by my side, and strengthen me 
With courage, as thou didst when we o'erthrew 
The towery crest of Ilium. Would thou wert 
Still my ally, as then ! I would engage, 
O blue-eyed Pallas, with three hundred foes, 49° 

If thou, dread goddess, wouldst but counsel me." 

And then the blue-eyed Pallas spake again : 
" I will be present with thee. When we once 
Begin the work, thou shalt not leave my sight ; 



22 The Odyssey. 

And many a haughty suitor with his blood 495 

And brains shall stain thy spacious palace floor. 

Now will I change thine aspect, so that none 

Shall know thee. I will wither thy fair skin, 

And it shall hang on crooked limbs ; thy locks 

Of auburn I will cause to fall away, s°° 

And round thee fling a cloak which all shall see 

With loathing. I will make thy lustrous eyes 

Dull to the sight, and thus shalt thou appear 

A squalid wretch to all the suitor train, 

And to thy wife, and to the son whom thou s°5 

Didst leave within thy palace. Then at first 

Repair thou to the herdsman, him who keeps 

Thy swine ; for he is loyal, and he loves 

Thy son and the discreet Penelope. 

There wilt thou find him as he tends his swine, s«° 

That find their pasturage beside the rock 

Of Corax, and by Arethusa's fount. 

On nourishing acorns they are fed, and drink 

The dark clear water, whence the flesh of swine 

Is fattened. There remain, and carefully s*$ 

Inquire of all that thou wouldst know, while I, 

Taking my way to Sparta, the abode 

Of lovely women, call Telemachus, 



Book xiii. 23 

Thy son, Ulysses, who hath visited 

King Menelaus in his broad domain, 520 

To learn if haply thou art living yet." 

Ulysses, the sagacious, answered her : 
" Why didst not thou, to whom all things are known, 
Tell him concerning me ? Must he too roam 
And suffer on the barren deep, and leave 525 

To others his estates, to be their spoil ? " 

And then the blue-eyed goddess spake again : 
" Let not that thought distress thee. It was I 
Who sent him thither, that he might deserve 
The praise of men. No evil meets him there ; 53° 

But in the halls of Atreus' son he sits, 
Safe mid the abounding luxuries. 'T is true 
That even now the suitors lie in wait, 
In their black ship, to slay him ere he reach 
His native land ; but that will hardly be 535 

Before the earth shall cover many a one 
Of the proud suitors who consume thy wealth." 

So Pallas spake, and touched him with her wand, 
And caused the blooming skin to shrivel up 
On his slow limbs, and the fair hair to fall, 540 

And with an old man's wrinkles covered all 
His frame, and dimmed his lately glorious eyes. 



24 The Odyssey. 

Another garb she gave, — a squalid vest ; 

A ragged, dirty cloak, all stained with smoke ; 

And over all the huge hide of a stag, 54s 

From which the hair was worn. A staff, beside, 

She gave, and shabby scrip with many a rent, 

Tied with a twisted thong. This said and done, 

They parted ; and the goddess flew to seek 

Telemachus in Sparta's sacred town. 55° 



BOOK XIV. 

~]pHEN from the haven up the rugged path 
Ulysses went among the woody heights. 
He sought the spot where Pallas bade him meet 
The noble swineherd, who of all that served 
The great Ulysses chiefly had in charge s 

To bring the day's supplies. He found him there 
Seated beneath the portico, before 
His airy lodge, that might be seen from far, 
Well built and spacious, standing by itself. 
Eumasus, while his lord was far away, 10 

Had built it, though not bidden by the queen 
Nor old Laertes, with the stones he drew 
From quarries thither. Round it he had set 
A hedge of thorns, encircling these with stakes 
Close set and many, cloven from the heart 15 

Of oak. Within that circuit he had made 
Twelve sties, beside each other, for the swine 
To lie in. Fifty wallowed in each sty, 



26 The Odyssey. 

All females ; there they littered. But the males 

Were fewer, and were kept without ; and these « 

The suitor train made fewer every day, 

Feeding upon them, for Eumsus sent 

Always the best of all his fading herd. 

These numbered twice nine score. Beside them slept 

Four mastiffs, which the master swineherd fed, *5 

Savage as wolves. Eumasus to his feet 

Was fitting sandals, which he carved and shaped 

From a stained ox-hide, while the other hinds 

Were gone on different errands, — three to drive 

The herds of swine, — a fourth was sent to take 3" 

A fading to the city, that the crew 

Of arrogant suitors, having offered him 

In sacrifice, might feast upon his flesh. 

The loud-mouthed dogs that saw Ulysses come 
Ran toward him, fiercely baying. He sat down 35 

At once, through caution, letting fall his staff 
Upon the ground, and would have suffered there 
Unseemly harm, within his own domain, 
But then the swineherd, following with quick steps, 
Rushed through the vestibule, and dropped the hide. 4° 
He chid the dogs and, pelting them with stones, 
Drave them asunder, and addressed the king : — 



Book xiv. 27 

" O aged man, the mastiffs of the lodge 
Had almost torn thee, and thou wouldst have cast 
Bitter reproach upon me. Other griefs 45 

And miseries the gods have made my lot. 
Here sorrowfully sitting I lament 
A godlike master, and for others tend 
His fading swine ; while, haply hungering 
For bread, he wanders among alien men 5° 

In other kingdoms, if indeed he lives 
And looks upon the sun. But follow me, 
And come into the house, that there, refreshed 
With food and wine, old man, thou mayst declare 
Whence thou dost come and what thou hast endured." ss 

So the good swineherd spake, and led the way 
Into the lodge, and bade his guest sit down, 
And laid thick rushes for his seat, and spread 
On these a wild goat's shaggy hide to make 
A soft and ample couch. Rejoiced to meet 60 

So kind a welcome, thus Ulysses spake : — 

" May Jupiter and all the deathless gods 
Bestow on thee, my host, in recompense 
Of this kind welcome, all thy heart's desire ! " 

And then, Eumasus, thou didst answer thus : 65 

" My guest, it were not right to treat with scorn 



28 The Odyssey. 

A stranger, though he were of humbler sort 

Than thou, for strangers and the poor are sent 

By Jove ; our gifts are small, though gladly given, 

As it must ever be with those who serve 7° 

Young masters, whom they fear. The gods themselves 

Prevent, no doubt, the safe return of him 

Who loved me much, and would ere this have given 

What a kind lord is wont to give his hind, — 

A house, a croft, the wife whom he has wooed, 75 

Rewarding faithful services which God 

Hath prospered, as he here hath prospered mine. 

Thus would my master, had he here grown old, 

Have recompensed my toils ; but he is dead. 

O that the house of Helen, for whose sake 80 

So many fell, had perished utterly! 

For he went forth at Agamemnon's call, 

Honoring the summons, and on Ilium's coast, 

Famed for its coursers, fought the sons of Troy." 

He spake, and girt his tunic round his loins, 85 

And hastened to the sties in which the herds 
Of swine were lying. Thence he took out two 
And slaughtered them, and singed them, sliced the flesh, 
And fixed it upon spits, and, when the whole 
Was roasted, brought and placed it reeking hot, 9° 



Book xiv. 29 

Still on the spits and sprinkled with white meal, 

Before Ulysses. Then he mingled wine 

Of delicate flavors in a wooden bowl, 

And opposite Ulysses sat him down, 

And thus with kindly words bespake his guest : — 95 

" Feast, stranger, on these porkers. We who serve 
May feed on them ; it is the suitor train 
That banquet on the fatted swine, — the men 
Who neither fear heaven's anger nor are moved 
By pity. The great gods are never pleased 100 

With violent deeds ; they honor equity 
And justice. Even those who land as foes 
And spoilers upon foreign shores, and bear 
Away much plunder by the will of Jove, 
Returning homeward with their laden barks, 105 

Feel, brooding heavily upon their minds, 
The fear of vengeance. But these suitors know — 
For haply they have heard some god declare — 
That he, the king, is dead ; they neither make 
Their suit with decency, nor will withdraw "° 

To their own homes, but at their ease devour 
His substance with large waste, and never spare. 
Of all the days and nights which Jupiter 
Gives to mankind is none when they require 



30 The Odyssey. 

A single victim only, or but two, "5 

For sacrifice, and lavishly they drain 

His wine-jars. Once large revenues were his. 

No hero on the dark-soiled continent 

Nor in the isle of Ithaca possessed 

Such wealth as he, nor even twenty men 120 

Together. Hear me while I give the amount. 

Twelve herds of kine that on the mainland graze 

Are his, as many flocks of sheep, of swine 

As many droves ; as many flocks of goats 

Are tended there by strangers, and by hinds, 125 

His servants. Here moreover, in the fields 

Beyond us, graze eleven numerous flocks 

Of goats, attended by his trusty men, 

Each one of whom brings daily home a goat, 

The finest of the fadings. I meantime 130 

Am keeper of these swine, and from the drove 

I choose and to the palace send the best." 

So spake the swineherd, while Ulysses ate 
The flesh with eager appetite, and drank 
The wine in silence, meditating woe I35 

To all the suitors. When the meal was o'er, 
And he was strengthened by the food, his host 
Filled up with wine the cup from which he drank, 



Book xiv. 31 

And gave it to Ulysses, who, well pleased, 

Received it, and with winged words replied : — 14° 

" What rich and mighty chief was he, my friend, 
Of whom thou speakest, and who purchased thee ? 
Thou sayest that he died to swell the fame 
Of Agamemnon. Tell his name, for I 
Perchance know somewhat of him. Jupiter 145 

And the great gods know whether I have seen 
The man, and have some tidings for thy ear ; 
For I have wandered over many lands." 

And then again the noble swineherd spake : 
" O aged man, no wanderer who should bring 15° 

News of Ulysses e'er would win his wife 
And son to heed the tale. For roving men, 
In need of hospitality, are prone 
To falsehood, and will never speak the truth. 
The vagabond who comes to Ithaca 155 

Goes straightway to my mistress with his lies. 
Kindly she welcomes him, and cherishes 
And questions him, while tears abundantly 
Fall from her lids, — such tears as women shed 
Whose lords have perished in a distant land. 160 

Thou too, old man, perchance, couldst readily 
Frame a like fable, if some one would give 



32 The Odyssey. 

A change of raiment for thy news, — a cloak 

And tunic. But the dogs and fowls of air 

Have doubtless fed upon the frame from which > 6 s 

The life has passed, and torn from off his bones 

The skin, or fishes of the deep have preyed 

Upon it, and his bones upon the shore 

Lie whelmed in sand. So is he lost to us, 

And sorrow is the lot of all his friends, 17° 

Mine most of all ; for nowhere shall I find 

So kind a master, though I were to come 

Into my father's and my mother's house, 

Where I was born and reared. Nor do I pine 

So much to look on them with my own eyes, 17s 

And in my place of birth, as I lament 

Ulysses lost. Though he be far away, 

Yet must I ever speak, O stranger guest, 

His name with reverence, for exceedingly 

He loved me and most kindly cared for me ; 18° 

And though he is to be with us no more, 

I hold him as an elder brother still." 

Ulysses, the great sufferer, thus replied : — 
" Since then, my friend, thou dost not say nor think 
That he will come again, nor wilt believe 185 

My words, I now repeat, but with an oath, 



Book xiv. 33 

Ulysses will return. Let this reward 

Be given for my good news : the very hour 

When he once more is in his house, bestow 

On me a comely change of raiment, — cloak 19° 

And tunic, — nor will I accept the gift, 

Though great my need, until he comes again. 

For as the gates of hell do I detest 

The man who, tempted by his poverty, 

Deceives with lying words. Now Jupiter 195 

Bear witness, and this hospitable board 

And hearth of good Ulysses where I sit, 

That all which I foretell will come to pass. 

This very year Ulysses will return. 

He, when this month goes out, and as the next »oo 

Is entering, will be here in his domain, 

To be avenged on those, whoe'er they be, 

That dare insult his wife and noble son." 

And then, Eumaeus, thou didst answer thus : 
" Old man, I shall not give thee that reward, *°s 

For never will Ulysses come again 
To his own palace. Drink thy wine in peace, 
And let us give our thoughts to other things. 
Remind me not of this again ; my heart 
Grows heavy in my bosom when I hear «° 

VOL. II. S 



34 The Odyssey. 

My honored master named. But leave the oath 

Unsworn, and may Ulysses come, as we 

Earnestly wish, — I and Penelope, 

And old Laertes, and the godlike youth 

Telemachus. And then, again, I bear "5 

Perpetual sorrow for Telemachus, 

My master's son, to whom the gods had given 

A generous growth like that of some young plant, 

And who, I hoped, would prove no less in worth 

Than his own father, and of eminent gifts «o 

In form and mind. Some god, perchance some man, 

Hath caused that mind to lose its equal poise, 

And he is gone to Pylos the divine 

For tidings of his father. Meanwhile here 

The arrogant suitors plan to lie in wait «s 

For him as he returns, that utterly 

The stock of great Arcesius from our isle 

May perish, and its name be heard no more. 

Speak we no more of him, be it his fate 

To fall or flee ; but O, may Saturn's son *3° 

Protect him with his arm ! And now, old man, 

Relate, I pray, thy fortunes ; tell me true, 

That I may know who thou mayst be, and whence 

Thou earnest, where thy city lies, and who 



Book xiv. 35 

Thy parents were, what galley landed thee *35 

Upon our coast, and how the mariners 
Brought thee to Ithaca, and of what race 
They claim to be ; for I may well suppose 
Thou hast not come to Ithaca on foot." 

Ulysses, the sagacious, answered him : 240 

" I will tell all and truly. Yet if here 
Were store of food, and wine for many days, 
And we might feast at ease within thy lodge 
While others labored, I should hardly end 
In a whole year the history of the woes 145 

Which I have borne, and of the many toils 
Which it hath pleased the gods to lay on me. 

" It is my boast that I am of the race 
Who dwell in spacious Crete, a rich man's son, 
Within whose palace many other sons 250 

Were born and reared, the offspring of his wife ; 
But me a purchased mother whom he made 
His concubine brought forth to him. And yet 
Castor Hylacides, from whom I sprang, 
Held me in equal favor with the rest ; 255 

And he himself was honored like a god 
Among the Cretan people, for his wealth 
And for his prosperous life and gallant sons. 



$6 The Odyssey. 

But fate and death o'ertook and bore him down 

To Pluto's realm, and his magnanimous sons 260 

Divided his large riches, casting lots. 

Small was the portion they assigned to me ; 

They gave a dwelling, but my valor won 

A bride, the daughter of a wealthy house, — 

For I was not an idler, nor in war 265 

A coward ; but all that is with the past, 

And thou, who seest the stubble now, mayst guess 

What was the harvest, ere calamities 

Had come so thick upon me. Once did Mars 

And Pallas lend me courage, and the power 27° 

To break through ranks of armed men. Whene'er 

I formed an ambush of the bravest chiefs, 

And planned destruction to the enemy, 

My noble spirit never set the fear 

Of death before me ; I was ever first *75 

To spring upon the foes, and with my spear 

To smite them as they turned their steps to flee. 

Such was I once in war ; to till the fields 

I never liked, nor yet the household cares 

By which illustrious sons are reared. I loved 280 

Ships well appointed, combats, polished spears 

And arrows. Things that others hold in dread 



Book xiv. sj 

Were my delight ; some god inclined to them 

My mind, • — so true it is that different men 

Rejoice in different labors. Ere the sons »8s 

Of Greece embarked for Troy, I served in war 

Nine times as leader against foreign foes, 

With troops and galleys under me, and then 

I prospered ; from the mass of spoil I chose 

The things that pleased me, and obtained by lot 19° 

Still other treasures. Thus my household grew 

In riches, and I was revered and great 

Among the Cretans. When all-seeing Jove 

Decreed the unhappy voyage to the coast 

Of Troy, they made the great Idomeneus 295 

And me commanders of the fleet. No power 

Had we — the public clamor was so fierce — 

To put the charge aside. Nine years we warred, — 

We sons of Greece, — and in the tenth laid waste 

The city of Priam, and embarked for home. 3°° 

Our fleets were scattered by the gods. For me 

Did all-disposing Jupiter ordain 

A wretched lot. But one short month I dwelt 

Happy among my children, with the wife 

Wedded to me in youth, and my large wealth. 3°s 

And then I planned a voyage to the coast 



38 The Odyssey. 

Of Egypt, with a gallant fleet, and men 

Of godlike valor. I equipped nine ships, 

And quickly came the people to embark. 

Six days on shore my comrades banqueted, 310 

And many a victim for the sacrifice 

And for the feast I gave ; the seventh we sailed 

From Crete's broad isle before a favoring wind 

That blew from the clear north, and easily 

We floated on as down a stream. No ship 315 

Was harmed upon its way ; in health and ease 

We sat, the wind and helmsmen guiding us, 

And came upon the fifth day to the land 

Of Egypt, watered by its noble streams. 

I bade my comrades keep beside our ships 3«> 

Upon the strand', and watch them well. I placed 

Sentries upon the heights. Yet confident 

In their own strength, and rashly giving way 

To greed, my comrades ravaged the fair fields 

Of the Egyptians, slew them, and bore off 3*5 

Their wives and little ones. The rumor reached 

The city soon ; the people heard the alarm 

And came together. With the early morn 

All the great plain was thronged with horse and foot, 

And gleamed with brass ; while Jove, the Thunderer, sent 



Book xiv. 39 

A deadly fear into our ranks, where none 331 

Dared face the foe. On every side was death. 

The Egyptians hewed down many with the sword, 

And some they led away alive to toil 

For them in slavery. To my mind there came 335 

A thought, inspired by Jove ; yet I could wish 

That I had met my fate, and perished there 

In Egypt, such have been my sorrows since. 

I took the well-wrought helmet from my head, 

And from my shoulders dropped the shield, and flung 34° 

The javelin from my hand, and went to meet 

The monarch in his chariot, clasped his knees 

And kissed them. He was moved to pity me, 

And spared me. In his car he seated me, 

And bore me weeping home. Though many rushed 34s 

At me with ashen spears, to thrust me through, — 

For furious was their anger, — he forbade. 

He feared the wrath of Jove, the stranger's friend 

And foe of wrong. Seven years I dwelt among 

The Egyptians, and I gathered in their land 35° 

Large wealth, for all were liberal of their gifts. 

But with the eighth revolving year there came 

A shrewd Phoenician, deep in guile, whose craft 

Had wrought much wrong to many. With smooth words 



4-0 The Odyssey. 

This man persuaded me to go with him 355 

Into Phoenicia, where his dwelling lay 
-And his possessions. With him I abode 
For one whole year ; and when its months and days 
Were ended, and another year began, 
He put me in a ship to cross the sea 360 

To Lybia. He had framed a treacherous plot, 
By making half the vessel's cargo mine, 
To lure me thither, and to sell me there 
For a large price. I went on board constrained, 
But with misgivings. Under a clear sky, 365 

With favoring breezes from the north, we ran 
O'er the mid sea, beyond the isle of Crete. 
When we had left the isle, and saw no land 
But only sky and sea, Saturnius bade 
A black cloud gather o'er our roomy ship. 37° 

The sea grew dark below. On high the God 
Thundered again and yet again, and sent 
A bolt into our ship, which, as it felt 
The lightning, reeled and shuddered, and was filled 
With sulphur-smoke. The seamen from the deck 37s 
Fell headlong, and were tossed upon the waves 
Like seamews round our galley, which the God 
Forbade them to regain. But Jupiter 



Book xiv. 41 

Gave to my hands, bewildered as I was, 

Our dark-prowed galley's mast, unbroken yet, 380 

That by its aid I might escape. I wound 

My arms around it, and the raging winds 

Swept me along. Nine days they bore me on, 

And on the tenth dark night a mighty surge 

Drifted me, as it rolled, upon the coast 385 

Of the Thesprotians. There the hero-king 

Of the Thesprotians freely sheltered me 

And fed me ; for his well-beloved son 

Had found me overcome with cold and toil, 

And took me by the hand and raised me up, 390 

And led me to his father's house, and gave 

Seemly attire, a tunic and a cloak. 

" There heard I of Ulysses. Pheidon told 
How he received him as a guest and friend, 
When on his homeward voyage. Then he showed 39s 
The wealth Ulysses gathered, brass and gold, 
And steel divinely wrought. That store might serve 
To feed, until ten generations pass, 
Another household. But the chief himself, 
So Pheidon said, was at Dodona then ; 400 

For he had gone to hear from the tall oak 
Of 'Jupiter the counsel of the God, 



VOL. II. 



42 The Odyssey. 

Whether to land in opulent Ithaca, 

After long years of absence, openly 

Or in disguise. The monarch took an oath 4=5 

In his own palace, pouring to the gods 

Their wine, that even- then the ship was launched, 

And the crew ready to attend him home. 

But me he first dismissed. There was a ship 

Of the Thesprotians just about to make 41° 

A voyage to Dulichium, rich in fields 

Of wheat. He bade them take me faithfully 

To King Acastus ; but another thought 

Found favor with the crew, a wicked scheme 

To plunge me deeper in calamity. 415 

And when our ship had sailed away from land, 

They hastened to prepare me for a life 

Of slavery. They took my garments off, 

Mantle and cloak, and clothed me in a vest 

And cloak, the very rags which thou dost see. 420 

The evening brought them to the pleasant fields 

Of Ithaca. They bound me in the ship 

With a strong cord, and disembarked, and took 

A hasty meal upon the ocean-side ; 

Easily did the gods unbind my limbs. 425 

I wrapped a tattered cloth about my head, 



Book xiv. 43 

And, slipping from the polished rudder, brought 

My bosom to the sea, and spread my hands, 

And swam away. I soon had left the crew 

At distance ; then I turned and climbed the shore, 43° 

Where it was dark with forest, and. lay close 

Within its shelter, while they wandered round 

And grumbled, but they ventured not to pass 

Into the island farther on their search. 

They turned, and went on board their roomy bark. 435 

Thus mightily the gods delivered me, 

And they have brought me to a wise man's lodge, 

And now I see it is my lot to live." 

Then thou, Eumsus, thus didst make reply : 
" Unhappy stranger, thou hast deeply moved 440 

My heart in telling all that thou hast borne, 
And all thy wanderings. Yet are some things wrong. 
Thou hast not spoken of Ulysses well. 
Why should a man like thee invent such tales, 
So purposeless ? Of one thing I am sure 44s 

Concerning his return, — the gods all hate 
My master, since they neither caused his death 
In the great war of Troy, nor, when the war 
Was over, suffered him to die at home, 
And in the arms of those who loved him most; 45° 



44 The Odyssey. 

For then would all the Greeks have reared to him 

A monument, and mighty would have been 

The heritage of glory for his son ; 

But now ingloriously the harpy brood 

Have torn him. I, apart among my swine, 455 

Go never to the town, unless, perchance, 

The sage Penelope requires me there, 

When some one comes with tidings from abroad. 

Then those who sorrow for their absent lord, 

And those who waste his substance, both inquire 460 

News of the king. For me, it suits me no*t 

Ever to ask for tidings, since the day 

When an iEtolian with a flattering tale 

Deceived me. He had slain a man, and came 

Wandering in many lands to my abode, 465 

And kindly I received him. He had seen 

He said, my master with Idomeneus, 

Among the Cretans, putting in repair 

His galleys, shattered by a furious storm, 

And in the summer time he would be here, 470 

Or in the autumn, bringing ample wealth, 

And his brave comrades with him. Seek not then 

O aged sufferer, whom some deity 

Has guided hither, to amuse my grief 



Book- xiv. 45 

With fictions that may bring back pleasant thoughts, 47s 
Since not for them I minister to thee 
And love thee, but through reverence for Jove, — 
The stranger's friend, — and pity for thyself." 

Ulysses, the sagacious, spake again : 
" Within thy bosom thou dost bear a heart 48° 

Of slow belief, since not the oath I take 
Persuades or even moves thee. Make we now 
A covenant, and let the gods who dwell 
Upon Olympus be our witnesses, 

That when thy master comes to this abode 4S5 

Thou wilt bestow a tunic and a cloak, 
And wilt despatch me clothed in seemly garb 
Hence to Dulichium, whither I would go. 
But if he come not as I have foretold, 
Then charge thy servants that they cast me down 49° 

From a tall rock, that never beggar more 
May think to cozen thee with lying tales." 

The noble swineherd answered him and said: 
" Great would my honor be, and I should gain 
Great praise for worth among the sons of men, 495 

If, having welcomed thee into my lodge 
And spread the board for thee, I took thy life ; 
Then boldly might I pray to Saturn's son. 



46 The Odyssey. 

But see, the supper hour is come, and soon 

Will my companions be within, and they 5°° 

Will make a liberal banquet ready here." 

Thus did the twain confer. Now came the swine, 
And those who tended them. They penned the herd 
In their enclosure, and a din of cries 

Rose as they entered. Then the swineherd called s°s 

To his companions : " Bring the best of all, 
And we will make an offering for the sake 
Of one who comes from far and is my guest. 
And we will also feast, for we have toiled 
Long time in tendance of this white-toothed herd, 51° 
And others waste, unpunished, what we rear." 

So spake he, and began to cleave the wood 
With the sharp steel ; the others chose and brought 
A fatted brawn, and placed him on the hearth. 
Nor was the swineherd careless of the rites S'5 

Due to the gods, — such was his piety. 
From off the white-toothed victim first he sheared 
The bristles of the forehead, casting them 
Into the flames, and prayed to all the gods 
For wise Ulysses and his safe return. 520 

Next, with a fragment of the oaken trunk 
Which he had just then cleft, he smote the boar, 



Book xiv. 47 

And the life left it. Then they cut its throat, 

And, having singed it, quickly hewed the parts 

Asunder, while the swineherd took and laid, 525 

On the rich fat, raw portions from the limbs 

For sacrifice, and other parts he cast, 

Sprinkled with flour of meal, into the flames ; 

The rest they duly sliced and fixed on spits, 

And roasted carefully, and drew it back, 530 

And heaped it on the board. And now arose 

The swineherd to divide the whole, for well 

He knew the duty of a host. He made 

Seven parts ; t and one he offered to the Nymphs, 

To Hermes, son of Maia, one, and both 53s 

With prayer ; the rest he set before the guests, 

But, honoring Ulysses, gave to him 

The white-toothed victim's ample chine. The king, 

The wise Ulysses, was well pleased, and said : — 

" Eumaeus, be thou ever dear to Jove 54° 

As to myself, since with thy benefits 
Thou freely honorest such a one as I." 

And thou, Eumasus, madest answer thus : 
" Eat, venerable stranger, and enjoy 

What is before us. At his pleasure God 54s 

Gives or withholds ; his power is over all." 



48 The Odyssey. 

He spake, and burned to the eternal gods 
The firstlings, and poured out the dark red wine, 
And to Ulysses, spoiler of walled towns, 
Who sat beside the table, gave the cup. 55° 

Meantime to each Mesaulius brought the bread, — 
A servant whom Eumaeus, while his lord 
Was far away, had taken for himself, 
Without the order of Penelope 

Or old Laertes ; from the Taphian tribe 555 

With his own goods he bought him. Now the guests 
Put forth their hands and shared the ready feast ; 
And when their thirst and hunger were appeased 
Mesaulius took the bread away, and all, 
Satiate with food and wine, lay down to rest. s 6 ° 

Then came the darkness on, without a moon ; 
And Jupiter the whole night long sent down 
The rain, and strong the showery west wind blew. 
And now to try the swineherd, if with all 
His kindly ministrations to his guest s 6 5 

He yet would spare to him his cloak, or bid 
Another do the like, Ulysses spake : — 

" Eumaeus, hearken thou, and all the rest, 
Thy comrades, while I utter boastful words. 
Wine makes me foolish, it can even cause 570 



Book xiv. 49 

The wise to sing and laugh a silly laugh 

And dance, and often to the lips it brings 

Words that were better left unsaid. But since 

I have begun to prattle, I will not 

Keep back my thought. I would I were as young 575 

And in the same full strength as when I formed 

Part of an ambush near the walls of Troy. 

The leaders were Ulysses, and the son 

Of Atreus, Menelaus, with myself 

The third, for they desired it. When we reached s g0 

The city and the lofty walls we lay 

Couched in a marshy spot among the reeds 

And thick-grown shrubs, with all our armor on. 

'T was an inclement night, and the north wind 

Blew bitter chill, the cold snow fell and lay 58s 

White like hoar-frost ; ice gathered on our shields. 

The rest had cloaks and tunics, and they slept 

At ease, their shoulders covered with their shields. 

I only, when I joined the squadron, left 

My cloak unwisely, for I had not thought 590 

Of such fierce cold. I went but with my shield 

And my embroidered girdle. When the night 

Was in its later watches, and the stars 

Were turning toward their set, I thus bespake 



50 The Odyssey. 

Ulysses near me, thrusting in his side 595 

My elbow, and he listened readily : — 

"'Son of Laertes, nobly born and wise! 
Ulysses, I shall not be long among 
The living; for I perish with the cold. 
I have no cloak ; some god misled my thought, 6°° 

So that I brought one garment and no more, 
And now I see there is no help for me.' 

" I spake, and instantly his mind conceived 
This stratagem, — such was his readiness 
In council and in battle, — and he said 605 

To me in a low voice : ' Be silent now, 
And let no others of the Achaians hear!' 
And leaning on his elbow thus he spake : — 

" 'Hear me, my friends: a dream has come from heaven 
Into my sleep. Far from our ships we lie; 610 

And now let some one haste to bear from us 
This word to Agamemnon, Atreus' son, 
The shepherd of the people, that he send 
More warriors to this ambush from the fleet.' 

" He spake, and Thoas instantly arose, — 615 

Andraemon's son, — and threw his purple cloak 
Aside, and hastened toward the fleet. I took 
Gladly the garment he had left, and lay 



Book xiv. 51 

Till Morning in her golden chariot came. 

And now I would that I were young again, 620 

And in the vigor of my prime, for then 

Some one among the swineherds in the stalls 

Would find, I think, a cloak for me, through love 

And reverence of such a man ; but now 

They hold me in slight favor, dressed in rags." 625 

And thus, Eumseus, thou didst make reply : 
" O aged man ! we see no cause of blame 
In thy recital, and of all thy words 
Not one is unbecoming or inapt. 

Thou shall not lack for garments, nor aught else 63° 

That any suppliant in his poverty 
Might hope for at our hands to-night. With morn 
Gird thou thy tatters on again ; for here 
We have not many cloaks, nor many a change 
Of raiment, — only one for each of us. 635 

But when the son of our Ulysses comes 
Again, he will provide thee with a cloak 
And tunic, and will send thee where thou wilt." 

He spake and rose, and made his guest a bed 
Close to the hearth, and threw on it the skins e 4 o 

Of sheep and goats, and there Ulysses lay, 
O'er whom the swineherd spread a thick large cloak, 



52 The Odyssey. 

Which he had often worn for a defence 
When a wild winter storm was in the air. 

Thus slept Ulysses with the young men near. 645 

A couch within, and distant from his charge, 
Pleased not the swineherd, who first armed himself, 
And then went forth. Ulysses gladly saw 
That while he was in distant lands his goods 
Were watched so faithfully. Eumasus hung 6 S o 

About his sturdy shoulders a sharp sword, 
And wrapped a thick cloak round him, tempest-proof, 
And took the hide of a huge pampered goat, 
And a well-pointed javelin for defence 
Both against dogs and men. So went he forth 655 

To take his rest where lay the white-toothed swine, 
Herded and slumbering underneath a rock, 
Whose hollow fenced them from the keen north wind. 



BOOK XV. 

HPHEN Pallas, hastening to the mighty realm 
Of Lacedasmon, sought the illustrious son 
Of great Ulysses, to remind the youth 
Of home, and bid him think of his return. 
She found Telemachus and Nestor's son s 

Upon their couches in the portico 
Of Menelaus, the renowned. Deep sleep 
Held Nestor's son ; but to Telemachus 
The welcome slumber came not, for his thoughts 
Uneasily through all the quiet night 10 

Dwelt on his father. Now beside his bed 
The blue-eyed Pallas took her stand and spake • — 

" Telemachus, it is no longer well 
That thou shouldst wander from thy home, and leave 
All thy possessions, and those arrogant men is 

That crowd thy halls. Beware, lest they devour 
Thy substance utterly, dividing all 
Among them, and this journey be for nought. 



54 The Odyssey. 

Make suit to Menelaus, great in war, 

Quickly to send thee home, that thou mayst join 20 

Thy blameless mother in thy halls ; for now 

Her father and her brothers counsel her 

To wed Eurymachus, whose gifts exceed 

Those of the other suitors, and besides 

He offers a yet richer bridal dower. 25 

It were not hard without thy leave to take 

Wealth from a palace. What a wife will do 

Thou knowest. 'T is her pleasure to increase 

The riches of the man whom she has wed. 

Care of her former children has she none, 30 
[...]
Themselves shall frame, for those who dwell on earth, 
Sweet strains in praise of sage Penelope. 245 

Not such was she who treacherously slew 
The husband of her youth, — she of the house 
Of Tyndarus. Her name among mankind 
Shall be the hateful burden of a song ; 
And great is the dishonor it has brought 25° 

On women, even the faithful and the good." 

So talked they with each other, standing there 
In Pluto's realm beneath the vaulted earth. 
Meantime Ulysses, hasteningfrom the town, 
Came to the fair fields of Laertes, tilled *55 

With care. Laertes, after years of toil, 
Acquired them. There his dwelling stood ; a shed 
Encircled it, where ate and sat and slept 



294 The Odyssey. 

The servants of the household, who fulfilled 

His slightest wish. An old Sicilian dame 26 ° 

Was there, who waited, in that distant spot, 

On her old master with assiduous care. 

And then Ulysses to his followers said : — 

" Go into that fair dwelling, and with speed 
Slay for our feast the fattest of the swine. *«s 

I go to prove my father ; I would learn 
Whether he knows me when he sees my face, 
Or haply knows me not, so long away." 

He spake, and laid his weapons in their hands. 
Straight toward the house they went. Ulysses passed *7° 
Into the fruitful orchard, there to prove 
His father. Going down and far within 
The garden-plot, he found not Dolius there, 
Nor any of the servants, nor his sons. 
All were abroad, old Dolius leading them. 275 

They gathered thorns to fence the garden-grounds. 
There, delving in that fertile spot, around 
A newly planted tree, Ulysses saw 
His father only, sordidly arrayed 

In a coarse tunic, patched and soiled. He wore **° 

Patched greaves of bullock's hide upon his thighs, 
A fence against the thorns ; and on his hands 



Book xxiv. 295 

Gloves, to protect them from the prickly stems 

Of bramble ; and upon his head a cap 

Of goatskin. There he brooded o'er his grief. as 5 

Him when the much-enduring chief beheld, 

Wasted with age and sorrow-worn, he stopped 

Beside a lofty pear-tree's stem and wept, 

And pondered whether he should kiss and clasp 

His father in his arms, and tell him all, 19° 

How he had reached his native land and home, 

Or question first and prove him. Musing thus, 

It pleased him to begin with sportive words ; 

And thus resolved, divine Ulysses drew 

Near to his father stooping at his task, 295 

And loosening the hard earth about a tree, 

And thus the illustrious son accosted him : — 

" O aged man ! there is no lack of skill 
In tending this fair orchard, which thy care 
Keeps flourishing ; no growth is there of fig, 3°° 

Vine, pear, or olive, or of plants that grow 
In borders, that has missed thy friendly hand. 
Yet let me say, and be thou not displeased, 
Thou art ill cared for, burdened as thou art 
With years, and squalid, and in mean attire. 3°s 

It cannot be that for thy idleness 



296 The Odyssey. 

Thy master treats thee thus ; nor is there seen 

Aught servile in thy aspect, — in thy face 

Or stature; thou art rather like a king; 

Thou seemest one who should enjoy the bath 3>° 

And banquet, and lie soft, — for this befits 

Old men like thee. Now say, and tell me true, 

Who may thy master be ? whose orchard this 

Which thou dost tend ? And, more than this, declare, 

For much I long to know, if I am come 3*5 

To Ithaca, as I just now was told 

By one who met me as I came, — a man 

Not overwise, who would not stop to tell 

What I desired to learn, nor bear to hear 

My questions, when I asked him if a guest s»° 

Of mine were living yet in health, or dead 

And in the realm of Pluto. Let me speak 

Of him, and mark me well, I pray ; I lodged 

Once, in my native land, a man who came 

Into my house, and never stranger yet 3*5 

More welcome was than he. He was by birth • 

Of Ithaca, he said, Laertes' son, 

And grandson of Arcesias. Him I led 

Beneath my roof, and hospitably lodged, 

And feasted in the plenty of my home, $3° 



Book xxiv. 297 

And gave such gifts as might become a host, — 

Seven talents of wrought gold, a silver cup 

All over rough with flowers, twelve single cloaks, 

Twelve mats, twelve mantles passing beautiful, 

And tunics twelve, and, chosen by himself, 33s 

Twelve graceful damsels, skilled in household arts." 

And then his father answered, shedding tears : 
" Thou art indeed, O stranger, in the land 
Of which thou dost inquire, but wicked men 
And lawless now possess it. Thou hast given 340 

Thy generous gifts in vain ; yet hadst thou found 
Ulysses living yet in Ithaca, 

Then would he have dismissed thee recompensed 
With gifts and liberal cheer, as is the due 
Of him who once has been our host. Yet say, 34s 

And truly say, how many years have passed 
Since thou didst lodge my son, if he it was, 
Thy hapless guest, whom, far a'way from home 
And all his friends, the creatures of the deep, 
And the foul birds of air, and beasts of prey, 35° 

Already have devoured. No mother mourned 
His death and wrapped him in his shroud, nor I, 
His father ; nor did chaste Penelope, 
His consort nobly dowered, bewail the man 

VOL. II. 38 



298 The Odyssey. 

She loved upon his bier with eyes dissolved 355 

In tears, as fitting was, — an honor due 

To those who die. Now, further, truly tell, 

For I would learn, what is thy name, and whence 

Thou comest, from what tribe, thy city where, 

And who thy parents. Where is the good ship 36° 

At anchor which has brought thee and thy friends ? 

Or hast thou landed from another's bark, 

Which put thee on the shore and left the isle ? " 

Ulysses, the sagacious, answered thus : 
" I will tell all and truly. I am come 365 

From Alybas ; a stately dwelling there 
Is mine, Apheidas is my father, son 
Of royal Polypemon, and my name 
Eperitus. Some deity has warped 

My course astray from the Sicanian coast, 37° 

And brought me hitherward against my will. 
My bark lies yonder, stationed by the field 
Far from the city. This is the fifth year 
Since parting with me thy Ulysses left 
My native land for his, ill-fated man ! 375 

Yet there were flights of birds upon the right 
Of happy presage as he sailed, and I 
Dismissed him cheerfully, and cheerfully 



Book xxiv. 299 

He went. We hoped that we might yet become 

Each other's guests, exchanging princely gifts." 380 

He spake, and a dark cloud of sorrow came 
Over Laertes. With both hands he grasped 
The yellow dust, and over his white head 
Shed it with piteous groans. Ulysses felt 
His heart within him melted ; the hot breath 385 

Rushed through his nostrils as he looked upon 
His well-beloved father, and he sprang 
And kissed and clasped him in his arms, and said : — 

" Nay, I am he, my father ; I myself 
Am he of whom thou askest. I am come 39° 

To mine own country in the twentieth year. 
But calm thyself, refrain from tears, and grieve 
No more, and let me tell thee, in a word, 
I have slain all the suitors in my halls, 
And so avenged their insolence and crimes." 395 

And then Laertes spake again, and said : 
" If now thou be Ulysses, my lost son, 
Give some plain token, that I may believe." 

Ulysses, the sagacious, answered thus : 
" First, then, behold with thine own eyes the scar 4°=> 

Which once the white tusk of a forest boar 
Inflicted on Parnassus, when I made 



300 The Odyssey. 

The journey thither, by thy own command, 

And by my gracious mother's, to receive 

Gifts which her father, King Autolycus, 4°s 

Once promised, when he came to Ithaca. 

And listen to me further ; let me name 

The trees which in thy well-tilled orchard grounds 

Thou gavest me ; I asked them all of thee, 

When by thy side I trod the garden walks, 41° 

A little boy. We went among the trees, 

And thou didst name them. Of the pear thirteen, 

And of the apple ten thou gavest me, 

And forty fig-trees ; and thou didst engage 

To give me fifty rows of vines, each row 41 s 

Of growth to feed the winepress. Grapes are there 

Of every flavor when the hours of Jove 

Shall nurse them into ripeness from on high." 

He spake ; a trembling seized the old man's heart 
And knees, as he perceived how true were all 4*° 

The tokens which Ulysses gave. He threw 
Round his dear son his arms. The hardy chief, 
Ulysses, drew him fainting to his heart. 
But when the old man's strength revived, and calm 
Came o'er his spirit, thus he spake again : — 425 

" O father Jove, assuredly the gods 



Book xxiv. 301 

Dwell on the Olympian height, since we behold 

The arrogant suitors punished for their crimes. 

Yet much I fear lest all the Ithacans 

Throng hither, and send messages to rouse 43° 

Against us all the Cephallenian states." 

Ulysses, the sagacious, answered thus : 
" Take courage ; let no thought like that disturb 
Thy mind ; but let us hasten to the house. 
Telemachus is there, with whom I sent 435 

The herdsman and the swineherd, bidding them 
Make ready with all speed our evening meal." 

Thus talked the twain, and toward the dwelling took 
Their way, and entering the commodious rooms 
They found Telemachus, and by his side 44° 

The herdsman and the keeper of the swine, 
Dividing for the feast the plenteous meats, 
And mingling the dark wine. Then to the bath 
Came the Sicilian dame, and ministered 
To the large-souled Laertes, and with oil 445 

Anointed him, and wrapped a sumptuous cloak 
About him. Pallas gave the monarch's limbs 
An ampler roundness ; taller to the sight 
He stood, and statelier. As he left the bath, 
His son beheld with wonder in his eyes, 45° 



3<D2 The Odyssey. 

So like a god Laertes seemed, and thus 
Ulysses said to him in winged words : — 

" Some one among the ever-living gods 
Hath surely shed, O father, on thy form 
And aspect all this grace and majesty." 455 

The sage Laertes answered : " Father Jove, 
And Pallas and Apollo ! would that I 
Were now as when I took the citadel 
Of Nericus, the strongly built, beside 
The sea-shore of Epirus, leading on 460 

My Cephallenians ! With such strength as then, 
Armed for the fray, I would have met and fought 
The suitors in the palace yesterday, 
And struck down many lifeless in the hall, 
And greatly would thy spirit have rejoiced." 465 

So talked they with each other. When they all 
Ceased from their task, and saw their meal prepared, 
They sat them down in order on the thrones 
And seats, and each put forth his hand and shared 
The banquet. Now approached an aged man, 47° 

Dolius, attended by his sons, who came 
Weary with toil, for the Sicilian dame, 
The nurse who reared them, went and summoned them, — 
She who in his late age with faithful care 



Book xxi r. 303 

Cherished the father. These, when at the board 475 

They saw Ulysses, and knew who he was, 
Stopped in the hall astonished. Instantly 
Ulysses called to them with friendly words : — ■ 

" Sit at the board, old man ; let none of you 
Give way to blank amazement. Know that we, 480 

Though keen our appetite for this repast, 
Have waited long, expecting your return." 

He spake, and Dolius sprang with outstretched arms 
And seized Ulysses by the hand, and kissed 
The wrist ; and thus in winged words he spake : — 485 

" Dear master ! since thou art returned to us, 
Who longed and yet expected not to see 
Thy face again, — since some divinity 
Has led thee hither, — hail ! and great may be 
Thy happiness, and may the gods bestow 49° 

All blessings on thee ! But declare, for I 
Would gladly know, if sage Penelope 
Have heard the tidings yet of thy return, 
Or must we send them by a messenger." 

Ulysses, the sagacious, answered thus : 495 

" My aged friend, she knows already all. 
Why wouldst thou take that care upon thyself? " 

He spake, and Dolius on a polished seat 



304 The Odyssey. 

Sat down, but round the great Ulysses came 

His sons, and welcomed him with loving words, 5°° 

And hung upon his hand, and then they took 

Their places by their father. So they sat 

Beneath Laertes' roof, and banqueted. 

Now through the city meantime swiftly ran 
The rumor that the suitors all had met s°s 

A bloody death. No sooner had men heard 
The tidings than they came with cries and moans 
Before the palace, moving to and fro. 
Each carried forth his dead, and gave to each 
His funeral rites, except to those who came 510 

From distant cities ; these they put on board 
Swift-sailing galleys of the fishermen, 
That they might bear them home. And then they came 
Sorrowing together in the market-place. 
There, when the assembly now was full, arose 515 

Eupeithes and addressed them. In his heart 
Was sorrow, that could never be consoled, 
For his slain son Antinoiis, who was first 
To fall before Ulysses. Weeping rose 
The father, and harangued the assembly thus : — 520 

" Great things, indeed, my friends, hath this man done 
For us Achaians. Many valiant men 



Book xxiv. 305 

He gathered in his ships and led abroad, 

And lost his gallant ships, and lost his men ; 

And now, returning, he has put to death 525 

The best of all the Cephallenian race. 

Come, then, and ere he find a safe retreat 

In Pylos, or in hallowed Elis, where 

The Epeians rule, pursue him ; endless shame 

Will be our portion else, and they who live 530 

In future years will hear of our disgrace. 

If we avenge not on these men of blood 

The murder of our sons and .brothers, life 

Will not be sweet to me, and I would go 

At once, and gladly, down among the dead. 535 

Rise, then, and fall upon them ere they flee." 

So spake he, weeping ; and the Greeks were moved 
With pity as they heard him. Now appeared 
The herald Medon and the sacred bard, 
As, rising from the sleep of night, they left 540 

The palace of Ulysses. They stood forth 
Amid the multitude, who all beheld 
With wonder. Then sagacious Medon spake : — 

" Give ear, ye men of Ithaca, and know 
That not without the approval of the gods 545 

Ulysses hath done this. I saw, myself, 

VOL. II. 39 



306 The Odyssey. 

One of the immortals taking part with him, 

In all things like to Mentor. Now the god 

Standing before Ulysses strengthened him 

For combat, and now drove the routed band 55° 

Of suitors through the hall ; in heaps they fell." 

He spake, and all who heard were pale with fear. 
The aged hero, Halitherses, son 
Of Mastor, then came forward ; he alone 
Knew what was past and what was yet to come, 555 

And, wisely judging, to the assembly said : — 

" Hear now my words, ye men of Ithaca. 
Through your own wrong all this has come to pass. 
To me ye would not hearken, nor obey 
When Mentor, shepherd of the people, spake. 56° 

On the mad doings of your sons ye put 
No curb, nor checked the guilty insolence 
That dared to waste the substance and insult 
The consort of a man of eminent worth, 
Who, so they thought, would nevermore return. 565 

Now be it as I counsel ; let us not 
Go forth to draw down evil on our heads." 

He spake ; but more than half the assembly rushed 
Abroad with shouts ; the others kept their place 
Together. Ill the augur's speech had pleased 570 



Book xxiv. 307 

The most. Eupeithes had persuaded them. 

They flew to arms, and when they had put on 

The glittering brass, they mustered in. close ranks 

Before the spacious city. At their head 

Eupeithes led them on, who madly deemed 57s 

Himself the avenger of his slaughtered son. 

Yet he from that encounter nevermore 

Was to return ; his fate o'ertook him there. 

Then Pallas thus addressed Saturnian Jove : 
" Our Father, son of Saturn, king of kings, s»° 

Tell me, I pray, the purpose of thy heart 
Yet unrevealed. Shall there be cruel war 
And deadly combats, or wilt thou ordain 
That these shall henceforth dwell in amity ? " 

And cloud-compelling Jove made answer thus : 585 

" My child, why ask me ? Was it not with thee 
A cherished purpose, that, returning home, 
Ulysses amply should avenge himself 
Upon the suitors ? Do, then, as thou wilt. 
Yet this, as the most fitting, I advise. 59° 

Now that the great Ulysses has avenged 
His wrongs, let there be made a faithful league 
With oaths, and let Ulysses ever reign ; 
And we will cause the living to forget 



308 The Odyssey. 

Their sons and brothers slain, and all shall dwell 595 

In friendship as they heretofore have dwelt, 
And there shall be prosperity and peace." 

He spake, and eager as she was before, 
Encouraged by his words, the goddess plunged 
Down from the summits of the Olympian mount. 6°° 

Now when they all had feasted to the full, 
The much-enduring chief, Ulysses, said : 
" Go, one of you, and see if they are near." 

He spake ; a son of Dolius at his word 
Went forth, and, coming to the threshold, stopped. 605 
He saw them all at hand, and instantly 
Bespake Ulysses thus, with winged words : 
" They are upon us ; we must arm at once." 

He spake ; they rose, and quickly were in arms. 
Four were Ulysses and his friends, and six 610 

The sons of Dolius. Old Laertes then, 
And Dolius, put on armor with the rest, 
Gray-headed as they were, for now their aid 
Was needed. When they all had clad themselves 
In shining brass, they threw the portals wide 615 

And sallied forth, Ulysses at their head. 

Now Pallas, daughter of almighty Jove, 
Drew near them. She had taken Mentor's form 



Book xxiv. 309 

And Mentor's voice. The much-enduring chief, 
Ulysses, saw her and rejoiced, and said 620 

To his beloved son, Telemachus : — 

" Now wilt thou, of thyself, Telemachus, 
Bethink thee, when thou minglest in the fray 
That tries men's valor, not to cast disgrace 
Upon thy forefathers, — a race renowned 625 

For manly daring over all the earth." 

And thus discreet Telemachus replied : 
" Nay, if thou wilt, my father, thou shalt see 
That by no lack of valor shall I cast, 
As thou hast said, dishonor on thy race." 630 

Laertes heard them, and rejoiced, and said : 
" O what a day for me, ye blessed gods, 
Is this ! With what delight I see my son 
And grandson rivals on the battle-field." 

And then the blue-eyed Pallas, drawing near 635 

Laertes, said : " Son of Arcesias, loved 
By me beyond all others of my friends, 
Pray to Jove's blue-eyed daughter, and to Jove, 
And brandish thy long spear, and send it forth." 

So Pallas spake, and breathed into his frame 64° 

Strength irresistible. The aged chief 
Prayed to the daughter of almighty Jove, 



3io The Odyssey. 

And brandished his long spear and sent it forth. 

It smote Eupeithes on the helmet's cheek. 

The brass stayed not the spear, the blade passed through, 

And heavily Eupeithes fell to earth, s 4 6 

His armor clashing round round him as he fell. 

Then rushed Ulysses and his valiant son 

Forward, the foremost of their band, and smote 

Their foes with swords and lances double-edged, 65° 

And would have struck them down to rise no more, 

If Pallas, daughter of the god who bears 

The aegis, had not with a mighty voice 

Commanded all the combatants to cease : — 

"Stay, men of Ithaca; withhold your hands 655 

From deadly combat. Part, and shed no blood." 

So Pallas spake, and they grew pale with awe, 
And fear-struck ; as they heard her words they dropped 
Their weapons all upon the earth. They fled 
Townward as if for life, while terribly 660 

The much-enduring chief Ulysses raised 
His voice, and shouted after them, and sprang 
Upon them as an eagle darts through air. 
Then Saturn's son sent down a bolt of fire ; 
It fell before his blue-eyed daughter's feet, 665 

And thus the goddess to Ulysses called : — 



Book xxiv. 3 1 1 

" Son of Laertes, nobly born and wise, 
Ulysses, hold thy hand ; restrain the rage 
Of deadly combat, lest the god who wields 
The thunder, Saturn's son, be wroth with thee." 67° 

She spake, and gladly he obeyed ; and then 
Pallas, the child of asgis-bearing Jove, 
Plighted, in Mentor's form with Mentor's voice 
A covenant of peace between the foes. 



END OF VOL. 11. 



Cambridge : Electrotyped and Printed by Welch, Bigelow. & Co. 
